TITL Sn-20183-5175-3 0.0194 63.645474 -4.09752494E+003 0 0 2 (P-1) n - 1
REM
REM Run started: Sun, 11 Nov 2018 03:46:48 +0000 in /home/s1422421/work/Z2Pack/examples/fp/airss-0.9.1/examples/Sn
REM CASTEP 18.1 from code version 70483bd0ad64+ Sun, 10 Dec 2017 12:18:29 +0000
REM Functional Perdew Burke Ernzerhof Relativity Koelling-Harmon Dispersion off
REM Cut-off 350.0000 eV Grid scale 1.7500 Gmax 16.7730 1/A FBSC none
REM MP grid 4 3 3 Offset 0.000 0.000 0.000 No. kpts 18 Spacing 0.1
REM
REM ./Sn.cell (3d25ad8763556a6d46bc889894070c2c)
REM AIRSS Version 0.9.1 bugfix July 2018 build 013d7b7c2542+ Fri, 06 Jul 2018 19:26:36 +0100
REM compiler GCC version 4.8.5 20150623 (Red Hat 4.8.5-28)
REM options -cpp -mtune=generic -march=x86-64 -g -O0
REM seed 1740452151 1089746383 -2145267227 1896299786 -1568877415 2047813878 -662648479 -809626805 -1029388108 405190774 -1047431750 502047594
REM
REM Sn 3|2.2|7|7|9|50:51:42(qc=5)
REM 
CELL 1.54180    3.23333    5.79984    5.00865   56.75900   54.27788   68.67198
LATT -1
SFAC Sn 
Sn     1  0.8068398114698  0.6368485702130  0.8365765691257 1.0
Sn     1  0.7934291885302  1.0144801297870  0.1156716308743 1.0
END
