TITL Sn-20183-5175-1 -0.0419 62.127720 -4.09734669E+003 0 0 2 (C2/m) n - 1
REM
REM Run started: Sun, 11 Nov 2018 02:11:18 +0000 in /home/s1422421/work/Z2Pack/examples/fp/airss-0.9.1/examples/Sn
REM CASTEP 18.1 from code version 70483bd0ad64+ Sun, 10 Dec 2017 12:18:29 +0000
REM Functional Perdew Burke Ernzerhof Relativity Koelling-Harmon Dispersion off
REM Cut-off 350.0000 eV Grid scale 1.7500 Gmax 16.7730 1/A FBSC none
REM MP grid 4 3 3 Offset 0.000 0.000 0.000 No. kpts 18 Spacing 0.1
REM
REM ./Sn.cell (3d25ad8763556a6d46bc889894070c2c)
REM AIRSS Version 0.9.1 bugfix July 2018 build 013d7b7c2542+ Fri, 06 Jul 2018 19:26:36 +0100
REM compiler GCC version 4.8.5 20150623 (Red Hat 4.8.5-28)
REM options -cpp -mtune=generic -march=x86-64 -g -O0
REM seed -47113075 -1867366402 -1896622202 -12018510 1325336353 795117359 1049197378 -483645164 -1945124500 1375779259 -275696363 1773014554
REM
REM Sn 3|2.2|7|7|9|50:51:42(qc=5)
REM 
CELL 1.54180    3.26371    5.23178    4.66040   55.60023  105.68430   90.34540
LATT -1
SFAC Sn 
Sn     1  0.3226330019031  0.1555361857711  0.8005020550095 1.0
Sn     1  0.6536276980969  0.7541868142289  0.6060067449905 1.0
END
