TITL Sn-19595-7369-52 0.0523 40.740194 -4.09548227E+003 0 0 2 (P-1) n - 1
REM
REM Run started: Sun, 11 Nov 2018 10:21:49 +0000 in /home/s1422421/work/Z2Pack/examples/fp/airss-0.9.1/examples/Sn2
REM CASTEP 18.1 from code version 70483bd0ad64+ Sun, 10 Dec 2017 12:18:29 +0000
REM Functional Perdew Burke Ernzerhof Relativity Koelling-Harmon Dispersion off
REM Cut-off 250.0000 eV Grid scale 1.7500 Gmax 14.1758 1/A FBSC none
REM MP grid 4 4 3 Offset 0.000 0.000 0.000 No. kpts 24 Spacing 0.1
REM
REM ./Sn.cell (a4412390f17ebc634eab8b3951e8cb19)
REM AIRSS Version 0.9.1 bugfix July 2018 build 013d7b7c2542+ Fri, 06 Jul 2018 19:26:36 +0100
REM compiler GCC version 4.8.5 20150623 (Red Hat 4.8.5-28)
REM options -cpp -mtune=generic -march=x86-64 -g -O0
REM seed -551138589 -10910396 1941826100 575999016 1253300344 30617885 852582848 835569262 -360355269 246231474 -437444159 1110950025
REM
REM Sn 3|2.2|7|7|9|50:51:42(qc=5)
REM 
CELL 1.54180    2.94202    2.90163    5.49828   97.77436  118.21128   91.75176
LATT -1
SFAC Sn 
Sn     1  0.0530911940463  0.1983158932042  0.5709031084402 1.0
Sn     1  1.0370393059537  0.6185593067958  0.0769028915598 1.0
END
