TITL Sn-19595-7369-68 -0.0604 40.346039 -4.09535019E+003 0 0 2 (P-1) n - 1
REM
REM Run started: Sun, 11 Nov 2018 13:20:24 +0000 in /home/s1422421/work/Z2Pack/examples/fp/airss-0.9.1/examples/Sn2
REM CASTEP 18.1 from code version 70483bd0ad64+ Sun, 10 Dec 2017 12:18:29 +0000
REM Functional Perdew Burke Ernzerhof Relativity Koelling-Harmon Dispersion off
REM Cut-off 250.0000 eV Grid scale 1.7500 Gmax 14.1758 1/A FBSC none
REM MP grid 4 4 3 Offset 0.000 0.000 0.000 No. kpts 24 Spacing 0.1
REM
REM ./Sn.cell (a4412390f17ebc634eab8b3951e8cb19)
REM AIRSS Version 0.9.1 bugfix July 2018 build 013d7b7c2542+ Fri, 06 Jul 2018 19:26:36 +0100
REM compiler GCC version 4.8.5 20150623 (Red Hat 4.8.5-28)
REM options -cpp -mtune=generic -march=x86-64 -g -O0
REM seed -614528144 -597981340 -2050299405 -573224166 276447590 327879902 1767301352 678707306 304866628 176932760 1239415509 -1878419687
REM
REM Sn 3|2.2|7|7|9|50:51:42(qc=5)
REM 
CELL 1.54180    2.94223    3.20456    4.31419   89.23744   87.37156   83.19238
LATT -1
SFAC Sn 
Sn     1  0.7701808389821  0.4631054598615  0.8455076133165 1.0
Sn     1  0.2659600610179 -0.0387817598615  0.3449826866835 1.0
END
