TITL Sn-19595-7369-3 -0.0403 41.881802 -4.09526218E+003 0 0 2 (P-1) n - 1
REM
REM Run started: Sun, 11 Nov 2018 01:54:42 +0000 in /home/s1422421/work/Z2Pack/examples/fp/airss-0.9.1/examples/Sn2
REM CASTEP 18.1 from code version 70483bd0ad64+ Sun, 10 Dec 2017 12:18:29 +0000
REM Functional Perdew Burke Ernzerhof Relativity Koelling-Harmon Dispersion off
REM Cut-off 250.0000 eV Grid scale 1.7500 Gmax 14.1758 1/A FBSC none
REM MP grid 4 3 4 Offset 0.000 0.000 0.000 No. kpts 24 Spacing 0.1
REM
REM ./Sn.cell (a4412390f17ebc634eab8b3951e8cb19)
REM AIRSS Version 0.9.1 bugfix July 2018 build 013d7b7c2542+ Fri, 06 Jul 2018 19:26:36 +0100
REM compiler GCC version 4.8.5 20150623 (Red Hat 4.8.5-28)
REM options -cpp -mtune=generic -march=x86-64 -g -O0
REM seed -2077973291 1585250824 -1320432876 -696326643 -1396085802 2015771310 332667665 1102100431 -339378770 114190783 -416389572 -422075763
REM
REM Sn 3|2.2|7|7|9|50:51:42(qc=5)
REM 
CELL 1.54180    3.83863    4.46234    3.95430  105.54862  132.23263  100.10801
LATT -1
SFAC Sn 
Sn     1  0.8611437839707  0.8241077325672  0.2377129649052 1.0
Sn     1  0.5440771160293  0.3181617674328  0.3667301350948 1.0
END
