TITL Sn-20052-7061-48 0.0377 40.510390 -4.09543914E+003 0 0 2 (P-1) n - 1
REM
REM Run started: Sun, 11 Nov 2018 09:53:18 +0000 in /home/s1422421/work/Z2Pack/examples/fp/airss-0.9.1/examples/Sn2
REM CASTEP 18.1 from code version 70483bd0ad64+ Sun, 10 Dec 2017 12:18:29 +0000
REM Functional Perdew Burke Ernzerhof Relativity Koelling-Harmon Dispersion off
REM Cut-off 250.0000 eV Grid scale 1.7500 Gmax 14.1758 1/A FBSC none
REM MP grid 4 4 3 Offset 0.000 0.000 0.000 No. kpts 24 Spacing 0.1
REM
REM ./Sn.cell (a4412390f17ebc634eab8b3951e8cb19)
REM AIRSS Version 0.9.1 bugfix July 2018 build 013d7b7c2542+ Fri, 06 Jul 2018 19:26:36 +0100
REM compiler GCC version 4.8.5 20150623 (Red Hat 4.8.5-28)
REM options -cpp -mtune=generic -march=x86-64 -g -O0
REM seed -2021513758 826649350 1906970459 1015268106 -2043103318 725232726 314693175 20231047 783724545 -703497776 -375786245 1576426039
REM
REM Sn 3|2.2|7|7|9|50:51:42(qc=5)
REM 
CELL 1.54180    2.95049    3.19981    4.45000   88.78893   88.65436   74.71536
LATT -1
SFAC Sn 
Sn     1  0.7112701774780  0.1665367846041  0.2772508790427 1.0
Sn     1  0.2122785225220  0.6675197153959  0.7772392209573 1.0
END
