TITL Sn-20052-7061-29 0.0379 41.063575 -4.09544016E+003 0 0 2 (P-1) n - 1
REM
REM Run started: Sun, 11 Nov 2018 07:04:24 +0000 in /home/s1422421/work/Z2Pack/examples/fp/airss-0.9.1/examples/Sn2
REM CASTEP 18.1 from code version 70483bd0ad64+ Sun, 10 Dec 2017 12:18:29 +0000
REM Functional Perdew Burke Ernzerhof Relativity Koelling-Harmon Dispersion off
REM Cut-off 250.0000 eV Grid scale 1.7500 Gmax 14.1758 1/A FBSC none
REM MP grid 4 4 3 Offset 0.000 0.000 0.000 No. kpts 24 Spacing 0.1
REM
REM ./Sn.cell (a4412390f17ebc634eab8b3951e8cb19)
REM AIRSS Version 0.9.1 bugfix July 2018 build 013d7b7c2542+ Fri, 06 Jul 2018 19:26:36 +0100
REM compiler GCC version 4.8.5 20150623 (Red Hat 4.8.5-28)
REM options -cpp -mtune=generic -march=x86-64 -g -O0
REM seed -1304492973 -1383001544 375693728 1633393506 1150723351 213183022 2060597595 -1319231596 248557734 -475506923 1168698706 473149769
REM
REM Sn 3|2.2|7|7|9|50:51:42(qc=5)
REM 
CELL 1.54180    2.90146    2.90023    4.97047   79.74475   87.30810   86.77668
LATT -1
SFAC Sn 
Sn     1  0.0540334066007  0.1233196715796  0.1529011069775 1.0
Sn     1  0.5394646933993  0.6305272284204  0.6530250930225 1.0
END
