TITL Sn-20052-7061-54 0.0094 40.519243 -4.09549897E+003 0 0 2 (C2/m) n - 1
REM
REM Run started: Sun, 11 Nov 2018 11:00:33 +0000 in /home/s1422421/work/Z2Pack/examples/fp/airss-0.9.1/examples/Sn2
REM CASTEP 18.1 from code version 70483bd0ad64+ Sun, 10 Dec 2017 12:18:29 +0000
REM Functional Perdew Burke Ernzerhof Relativity Koelling-Harmon Dispersion off
REM Cut-off 250.0000 eV Grid scale 1.7500 Gmax 14.1758 1/A FBSC none
REM MP grid 4 3 4 Offset 0.000 0.000 0.000 No. kpts 24 Spacing 0.1
REM
REM ./Sn.cell (a4412390f17ebc634eab8b3951e8cb19)
REM AIRSS Version 0.9.1 bugfix July 2018 build 013d7b7c2542+ Fri, 06 Jul 2018 19:26:36 +0100
REM compiler GCC version 4.8.5 20150623 (Red Hat 4.8.5-28)
REM options -cpp -mtune=generic -march=x86-64 -g -O0
REM seed -1991352401 482438796 -1336542446 -750005085 -118504168 -1994901247 -1764563034 994319547 -1544354208 1698805451 1504458231 1722796448
REM
REM Sn 3|2.2|7|7|9|50:51:42(qc=5)
REM 
CELL 1.54180    2.96628    4.33295    3.18852   89.52777   81.45055   89.02909
LATT -1
SFAC Sn 
Sn     1 -0.0522758505848  0.0055894491660  0.9935645177694 1.0
Sn     1  0.4469760505848  0.5062537508340  0.4918808822306 1.0
END
