TITL Sn-20052-7061-8 0.0330 40.318253 -4.09529638E+003 0 0 2 (P-1) n - 1
REM
REM Run started: Sun, 11 Nov 2018 03:15:41 +0000 in /home/s1422421/work/Z2Pack/examples/fp/airss-0.9.1/examples/Sn2
REM CASTEP 18.1 from code version 70483bd0ad64+ Sun, 10 Dec 2017 12:18:29 +0000
REM Functional Perdew Burke Ernzerhof Relativity Koelling-Harmon Dispersion off
REM Cut-off 250.0000 eV Grid scale 1.7500 Gmax 14.1758 1/A FBSC none
REM MP grid 4 4 3 Offset 0.000 0.000 0.000 No. kpts 24 Spacing 0.1
REM
REM ./Sn.cell (a4412390f17ebc634eab8b3951e8cb19)
REM AIRSS Version 0.9.1 bugfix July 2018 build 013d7b7c2542+ Fri, 06 Jul 2018 19:26:36 +0100
REM compiler GCC version 4.8.5 20150623 (Red Hat 4.8.5-28)
REM options -cpp -mtune=generic -march=x86-64 -g -O0
REM seed -1486693294 1733100108 -41693841 -1709063754 -321788337 1340706031 -766332164 -937426344 1727773669 2107623552 1362208452 -1826279274
REM
REM Sn 3|2.2|7|7|9|50:51:42(qc=5)
REM 
CELL 1.54180    3.22440    2.93920    4.29944   93.63829   88.91392   97.45447
LATT -1
SFAC Sn 
Sn     1  0.8188299613209  0.7798619923135  0.6929213847705 1.0
Sn     1  0.3219404386791  0.2754850076865  0.1925409152295 1.0
END
