TITL Sn-20052-7061-19 -0.0268 41.022500 -4.09575880E+003 0 0 2 (P-1) n - 1
REM
REM Run started: Sun, 11 Nov 2018 05:05:41 +0000 in /home/s1422421/work/Z2Pack/examples/fp/airss-0.9.1/examples/Sn2
REM CASTEP 18.1 from code version 70483bd0ad64+ Sun, 10 Dec 2017 12:18:29 +0000
REM Functional Perdew Burke Ernzerhof Relativity Koelling-Harmon Dispersion off
REM Cut-off 250.0000 eV Grid scale 1.7500 Gmax 14.1758 1/A FBSC none
REM MP grid 4 4 2 Offset 0.000 0.000 0.000 No. kpts 16 Spacing 0.1
REM
REM ./Sn.cell (a4412390f17ebc634eab8b3951e8cb19)
REM AIRSS Version 0.9.1 bugfix July 2018 build 013d7b7c2542+ Fri, 06 Jul 2018 19:26:36 +0100
REM compiler GCC version 4.8.5 20150623 (Red Hat 4.8.5-28)
REM options -cpp -mtune=generic -march=x86-64 -g -O0
REM seed -427826442 97896964 627248860 1556242589 16663439 -608470620 211434751 -933085993 -1517505383 -203396002 -199521933 5759428
REM
REM Sn 3|2.2|7|7|9|50:51:42(qc=5)
REM 
CELL 1.54180    2.89325    2.91292    5.60893   70.83042   73.91582   69.10493
LATT -1
SFAC Sn 
Sn     1  0.5835276930541  0.8372255337766  0.6029734574643 1.0
Sn     1  0.0638084069459  0.5402730662234  0.1102353425357 1.0
END
