TITL Sn-20052-7061-3 -0.0427 42.222177 -4.09498500E+003 0 0 2 (P-1) n - 1
REM
REM Run started: Sun, 11 Nov 2018 02:01:49 +0000 in /home/s1422421/work/Z2Pack/examples/fp/airss-0.9.1/examples/Sn2
REM CASTEP 18.1 from code version 70483bd0ad64+ Sun, 10 Dec 2017 12:18:29 +0000
REM Functional Perdew Burke Ernzerhof Relativity Koelling-Harmon Dispersion off
REM Cut-off 250.0000 eV Grid scale 1.7500 Gmax 14.1758 1/A FBSC none
REM MP grid 3 3 4 Offset 0.000 0.000 0.000 No. kpts 18 Spacing 0.1
REM
REM ./Sn.cell (a4412390f17ebc634eab8b3951e8cb19)
REM AIRSS Version 0.9.1 bugfix July 2018 build 013d7b7c2542+ Fri, 06 Jul 2018 19:26:36 +0100
REM compiler GCC version 4.8.5 20150623 (Red Hat 4.8.5-28)
REM options -cpp -mtune=generic -march=x86-64 -g -O0
REM seed 430206971 299455762 -249571217 -528665708 -566880602 1898294088 624719822 1690140524 984311581 956722254 -1678198832 -1905641441
REM
REM Sn 3|2.2|7|7|9|50:51:42(qc=5)
REM 
CELL 1.54180    3.90006    4.04721    3.45968  118.25296  116.20002   87.41771
LATT -1
SFAC Sn 
Sn     1  0.4627050886718  1.0054517691147  0.8144661110540 1.0
Sn     1 -0.0375604886718  0.5053775308853  0.8151838889460 1.0
END
