TITL Sn-20052-7061-17 -0.0625 41.207400 -4.09539709E+003 0 0 2 (P-1) n - 1
REM
REM Run started: Sun, 11 Nov 2018 04:54:37 +0000 in /home/s1422421/work/Z2Pack/examples/fp/airss-0.9.1/examples/Sn2
REM CASTEP 18.1 from code version 70483bd0ad64+ Sun, 10 Dec 2017 12:18:29 +0000
REM Functional Perdew Burke Ernzerhof Relativity Koelling-Harmon Dispersion off
REM Cut-off 250.0000 eV Grid scale 1.7500 Gmax 14.1758 1/A FBSC none
REM MP grid 4 3 3 Offset 0.000 0.000 0.000 No. kpts 18 Spacing 0.1
REM
REM ./Sn.cell (a4412390f17ebc634eab8b3951e8cb19)
REM AIRSS Version 0.9.1 bugfix July 2018 build 013d7b7c2542+ Fri, 06 Jul 2018 19:26:36 +0100
REM compiler GCC version 4.8.5 20150623 (Red Hat 4.8.5-28)
REM options -cpp -mtune=generic -march=x86-64 -g -O0
REM seed 39678031 1508328090 1815467549 1427982502 1476973434 -838622458 1003127576 920463736 -247971606 -992100984 -1909610761 1737459680
REM
REM Sn 3|2.2|7|7|9|50:51:42(qc=5)
REM 
CELL 1.54180    2.93640    3.83431    4.22678   88.94860   63.38726   76.68765
LATT -1
SFAC Sn 
Sn     1  0.6069546932229  0.1839089217248  0.4062290931441 1.0
Sn     1  0.6051269067771  0.6836589782752  0.9063018068559 1.0
END
